Version 4
SHEET 1 1976 1544
WIRE 544 -480 336 -480
WIRE 544 -432 544 -480
WIRE 544 -416 544 -432
WIRE 544 -320 544 -336
WIRE 816 -320 544 -320
WIRE -16 -304 -48 -304
WIRE -96 -288 -96 -320
WIRE -48 -288 -48 -304
WIRE -16 -288 -16 -304
WIRE -112 -240 -288 -240
WIRE 160 -240 -32 -240
WIRE 816 -240 544 -240
WIRE 544 -208 544 -240
WIRE 544 -176 544 -208
WIRE 544 -80 544 -96
WIRE 816 -80 544 -80
WIRE -624 -48 -768 -48
WIRE -384 -48 -624 -48
WIRE -288 -48 -288 -240
WIRE -288 -48 -384 -48
WIRE -208 -48 -288 -48
WIRE -64 -48 -128 -48
WIRE 0 -48 -64 -48
WIRE 160 -48 160 -240
WIRE 160 -48 80 -48
WIRE 336 -48 336 -480
WIRE 336 -48 160 -48
WIRE 816 0 544 0
WIRE -64 16 -64 -48
WIRE 544 32 544 0
WIRE -624 64 -624 -48
WIRE 544 64 544 32
WIRE 336 144 288 144
WIRE 384 144 336 144
WIRE -768 160 -768 -48
WIRE 544 160 544 144
WIRE 816 160 544 160
WIRE -816 176 -832 176
WIRE -384 176 -384 -48
WIRE 288 176 288 144
WIRE 384 176 384 144
WIRE -816 224 -848 224
WIRE -624 224 -624 128
WIRE 816 240 544 240
WIRE -848 256 -848 224
WIRE 288 272 288 256
WIRE 336 272 288 272
WIRE 384 272 384 256
WIRE 384 272 336 272
WIRE 544 272 544 240
WIRE 336 288 336 272
WIRE 544 304 544 272
WIRE 544 400 544 384
WIRE 816 400 544 400
WIRE -768 448 -768 240
WIRE -624 448 -624 304
WIRE -624 448 -768 448
WIRE -384 448 -384 240
WIRE -384 448 -624 448
WIRE 336 448 -384 448
WIRE 816 480 544 480
WIRE 544 512 544 480
WIRE 544 544 544 512
WIRE 544 640 544 624
WIRE 816 640 544 640
WIRE 816 720 544 720
WIRE 544 752 544 720
WIRE 544 784 544 752
WIRE 544 880 544 864
WIRE 816 880 544 880
WIRE -704 960 -752 960
WIRE 816 960 544 960
WIRE -560 976 -640 976
WIRE -464 976 -560 976
WIRE -176 976 -368 976
WIRE -80 976 -176 976
WIRE 80 976 16 976
WIRE 544 976 544 960
WIRE -704 992 -752 992
WIRE 336 1024 336 448
WIRE 544 1024 544 976
WIRE 544 1024 336 1024
WIRE -672 1152 -688 1152
WIRE -688 1184 -688 1152
WIRE -176 1200 -176 976
WIRE -80 1200 -176 1200
WIRE 80 1200 16 1200
FLAG 336 288 0
FLAG 336 144 Rquench
FLAG 80 976 PSdelay
FLAG 80 1200 SWdelay
FLAG -16 -288 0
FLAG -96 -320 SWdelay
FLAG -176 976 Qtrigger
FLAG -64 16 0
FLAG -752 960 Vdetp
FLAG -752 992 Vdetn
FLAG -688 1264 0
FLAG -688 1152 Vthres
FLAG 336 -480 Vmagnetp
FLAG 336 1024 Vmagnetn
FLAG -624 -48 Vpsoutp
FLAG -560 976 Qdet
FLAG -832 176 PSdelay
FLAG -848 256 0
FLAG 816 -320 Vdetp
FLAG 816 -240 Vdetn
FLAG 544 -208 VT2
FLAG 544 32 VT3
FLAG 544 272 VT4
FLAG 544 512 VT5
FLAG 544 752 VT6
FLAG 544 -432 VT1
FLAG 544 976 VT7
SYMBOL ind 528 48 R0
WINDOW 0 71 36 Left 2
WINDOW 3 67 76 Left 2
SYMATTR InstName L_upper_main
SYMATTR Value 30.4m
SYMATTR SpiceLine Rser=0 Rpar=0
SYMBOL res -224 -32 R270
WINDOW 0 32 56 VTop 2
WINDOW 3 0 56 VBottom 2
SYMATTR InstName Rdump1
SYMATTR Value 1.25
SYMBOL sw -16 -240 R90
SYMATTR InstName S1
SYMATTR Value MYSW
SYMBOL ind 528 288 R0
WINDOW 0 81 36 Left 2
WINDOW 3 79 76 Left 2
SYMATTR InstName L_lower_main
SYMATTR Value 30.4m
SYMATTR SpiceLine Rser=0 Rpar=0
SYMBOL res 528 144 R0
WINDOW 0 71 44 Left 2
WINDOW 3 67 71 Left 2
SYMATTR InstName R_upper_main
SYMATTR Value 0
SYMBOL voltage 288 160 R0
WINDOW 0 -152 41 Left 2
WINDOW 3 -393 72 Left 2
WINDOW 123 0 0 Left 0
WINDOW 39 0 0 Left 0
SYMATTR InstName VRquench
SYMATTR Value PULSE(1u 20m 10m 150m 1 5)
SYMBOL Digital\\diffschmtbuf -704 912 R0
WINDOW 0 27 104 Left 2
SYMATTR InstName A1
SYMATTR SpiceLine Vt=100m, Vh=1m, Vhigh=1, Vlow=0, Trise=1n, Tfall=1n
SYMBOL res -16 -32 R270
WINDOW 0 32 56 VTop 2
WINDOW 3 0 56 VBottom 2
SYMATTR InstName Rdump2
SYMATTR Value 1.25
SYMBOL diode -368 240 R180
WINDOW 0 24 64 Left 2
WINDOW 3 24 0 Left 2
SYMATTR InstName D1
SYMATTR Value Dideal
SYMBOL Digital\\srflop -32 928 R0
WINDOW 0 -47 148 Left 2
WINDOW 39 -45 -4 Left 2
SYMATTR InstName A2
SYMATTR SpiceLine Vhigh=1, Td=50m
SYMBOL Digital\\srflop -32 1152 R0
WINDOW 0 -47 -4 Left 2
WINDOW 39 -47 149 Left 2
SYMATTR InstName A5
SYMATTR SpiceLine Vhigh=1, Td=1m
SYMBOL voltage -688 1168 R0
WINDOW 123 0 0 Left 0
WINDOW 39 0 0 Left 0
SYMATTR InstName V1
SYMATTR Value 0.1
SYMBOL voltage -624 208 R0
WINDOW 123 0 0 Left 0
WINDOW 39 0 0 Left 0
SYMATTR InstName V2
SYMATTR Value 10
SYMBOL diode -640 64 R0
SYMATTR InstName D2
SYMATTR Value Dlim
SYMBOL current 384 176 R0
WINDOW 123 0 0 Left 0
WINDOW 39 0 0 Left 0
SYMATTR InstName IRq
SYMATTR Value 1
SYMBOL Digital\\srflop -416 928 R0
WINDOW 0 -47 148 Left 2
WINDOW 39 -45 -4 Left 2
SYMATTR InstName A3
SYMATTR SpiceLine Vhigh=1, Td=33.3333m
SYMBOL ind2 528 -432 R0
WINDOW 0 65 42 Left 2
WINDOW 3 65 78 Left 2
SYMATTR InstName L_upper_left
SYMATTR Value 12.3m
SYMATTR Type ind
SYMATTR SpiceLine Rser=0 Rpar=0
SYMBOL ind 528 -192 R0
WINDOW 0 69 38 Left 2
WINDOW 3 69 78 Left 2
SYMATTR InstName L_lower_left
SYMATTR Value 12.3m
SYMATTR SpiceLine Rser=0 Rpar=0
SYMBOL ind 528 528 R0
WINDOW 0 84 34 Left 2
WINDOW 3 78 80 Left 2
SYMATTR InstName L_upper_right
SYMATTR Value 12.3m
SYMATTR SpiceLine Rser=0 Rpar=0
SYMBOL ind 528 768 R0
WINDOW 0 80 40 Left 2
WINDOW 3 80 80 Left 2
SYMATTR InstName L_lower_right
SYMATTR Value 12.3m
SYMATTR SpiceLine Rser=0 Rpar=0
SYMBOL g -768 144 R0
WINDOW 3 24 96 Invisible 2
SYMATTR InstName G1
SYMATTR Value table(0V 240A, 1nV 0A)
SYMBOL res 528 -96 R0
WINDOW 0 70 34 Left 2
WINDOW 3 72 68 Left 2
SYMATTR InstName R_lower_left
SYMATTR Value 0
SYMBOL res 528 -336 R0
WINDOW 0 67 44 Left 2
WINDOW 3 69 74 Left 2
SYMATTR InstName R_upper_left
SYMATTR Value R=V(Rquench)
SYMBOL res 528 384 R0
WINDOW 0 78 42 Left 2
WINDOW 3 78 76 Left 2
SYMATTR InstName R_lower_main
SYMATTR Value 0
SYMBOL res 528 624 R0
WINDOW 0 84 34 Left 2
WINDOW 3 86 74 Left 2
SYMATTR InstName R_upper_right
SYMATTR Value 0
SYMBOL res 528 864 R0
WINDOW 0 84 38 Left 2
WINDOW 3 90 68 Left 2
SYMATTR InstName R_lower_right
SYMATTR Value 0
TEXT -808 512 Left 2 !.tran 300m
TEXT -808 544 Left 2 !.ic I(L1)=240 I(L2)=240
TEXT -808 576 Left 2 !.model MYSW SW(Vt=0.9, Vh=1u, Ron=1000G, Roff=1u)
TEXT -808 608 Left 2 !.model Dideal D(Ron=1u, Roff=1000G, Vfwd=1)
TEXT -808 640 Left 2 !.model Dlim D(Ron=1u, Roff=1000G, Vfwd=0)
TEXT -544 208 VCenter 2 ;Limit output\nvoltage to 10V
TEXT 24 856 Center 2 ;Power-supply\nactuation delay
TEXT 32 1336 Center 2 ;Extraction switch\nactuation delay
TEXT 344 336 Center 2 ;Normal-zone\nresistance growth
TEXT -208 -272 Center 2 ;Extraction switch
TEXT -408 856 Center 2 ;Validation\ntime
TEXT -616 856 Center 2 ;Imbalance\ndetection
TEXT -856 96 Center 2 ;PS turn-off\ncircuit
RECTANGLE Normal 576 -224 512 -432 2
RECTANGLE Normal 576 16 512 -192 2
RECTANGLE Normal 576 256 512 48 2
RECTANGLE Normal 576 496 512 288 2
RECTANGLE Normal 576 736 512 528 2
RECTANGLE Normal 576 976 512 768 2
